Version 4
SHEET 1 2292 1020
WIRE 1520 -368 1008 -368
WIRE 2096 -368 1520 -368
WIRE 2096 -256 2096 -368
WIRE 128 -96 32 -96
WIRE 352 -96 128 -96
WIRE 1520 -80 1520 -368
WIRE 1712 -80 1520 -80
WIRE 352 -48 352 -96
WIRE 128 16 128 -96
WIRE 1520 32 1520 16
WIRE 1712 32 1712 -16
WIRE 1712 32 1520 32
WIRE -64 80 -320 80
WIRE -32 80 -32 -96
WIRE -32 80 -64 80
WIRE 0 80 -32 80
WIRE 448 80 256 80
WIRE 1520 96 1520 32
WIRE 1744 96 1520 96
WIRE 1856 96 1824 96
WIRE 2096 96 2096 -192
WIRE 2096 96 1936 96
WIRE -80 160 -208 160
WIRE 0 160 -80 160
WIRE 352 160 352 16
WIRE 352 160 256 160
WIRE 448 160 352 160
WIRE 1008 160 1008 -368
WIRE 1520 160 1520 96
WIRE 1712 160 1520 160
WIRE 1712 176 1712 160
WIRE 0 240 -80 240
WIRE 448 240 256 240
WIRE 2096 240 2096 96
WIRE 1712 256 1712 240
WIRE 1712 256 1520 256
WIRE -320 304 -320 80
WIRE -208 304 -208 160
WIRE 128 336 128 304
WIRE -320 400 -320 384
WIRE -208 400 -208 384
WIRE -208 400 -320 400
WIRE -80 400 -80 240
WIRE -208 432 -208 400
WIRE 1008 480 1008 240
WIRE 1520 480 1520 256
WIRE 1520 480 1008 480
WIRE 2096 480 2096 304
WIRE 2096 480 1520 480
FLAG -80 480 0
FLAG -208 432 0
FLAG 128 336 0
FLAG -64 80 Vcc
FLAG -80 160 QAc+
FLAG -80 240 QAc-
FLAG 448 80 QA+
FLAG 448 240 QA-
FLAG 448 160 A
FLAG 1520 96 A
FLAG 1472 0 QA+
FLAG 1472 240 QA-
FLAG 1520 480 0
FLAG 128 -96 BOOT
FLAG 2096 96 Vo
SYMBOL PowerProducts\\LTC4446 128 160 R0
SYMATTR InstName U1
SYMBOL diode -32 -80 R270
WINDOW 0 32 32 VTop 2
WINDOW 3 0 32 VBottom 2
SYMATTR InstName D1
SYMATTR Value RFN1L6S
SYMBOL voltage -320 288 R0
WINDOW 123 0 0 Left 0
WINDOW 39 0 0 Left 0
SYMATTR InstName V1
SYMATTR Value 15
SYMBOL voltage -208 288 R0
WINDOW 3 76 -62 VRight 2
WINDOW 123 0 0 Left 0
WINDOW 39 0 0 Left 0
SYMATTR InstName V2
SYMATTR Value PULSE(0 5 0 100n 10n 9.9u 20u)
SYMBOL voltage -80 384 R0
WINDOW 3 83 -41 VRight 2
WINDOW 123 0 0 Left 0
WINDOW 39 0 0 Left 0
SYMATTR InstName V3
SYMATTR Value PULSE(0 5 10u 100n 10n 9.9u 20u)
SYMBOL cap 336 -48 R0
WINDOW 3 63 41 Left 2
SYMATTR InstName C1
SYMATTR Value 10µ
SYMBOL voltage 1008 144 R0
WINDOW 123 0 0 Left 0
WINDOW 39 0 0 Left 0
SYMATTR InstName V4
SYMATTR Value 100
SYMBOL nmos 1472 -80 R0
SYMATTR InstName M1
SYMATTR Value SPA11N60C3
SYMBOL nmos 1472 160 R0
SYMATTR InstName M2
SYMATTR Value SPA11N60C3
SYMBOL diode 1728 -16 R180
WINDOW 0 24 64 Left 2
WINDOW 3 24 0 Left 2
SYMATTR InstName D2
SYMBOL diode 1728 240 R180
WINDOW 0 24 64 Left 2
WINDOW 3 24 0 Left 2
SYMATTR InstName D3
SYMBOL ind 1728 112 R270
WINDOW 0 32 56 VTop 2
WINDOW 3 5 56 VBottom 2
SYMATTR InstName L1
SYMATTR Value 1m
SYMBOL res 1952 80 R90
WINDOW 0 0 56 VBottom 2
WINDOW 3 32 56 VTop 2
SYMATTR InstName R1
SYMATTR Value 20
SYMBOL cap 2080 240 R0
SYMATTR InstName C2
SYMATTR Value 47µ
SYMBOL cap 2080 -256 R0
SYMATTR InstName C3
SYMATTR Value 47µ
TEXT 416 368 Left 2 !.tran 0 50m 25m 1u
