Version 4
SHEET 1 880 692
WIRE 64 48 -368 48
WIRE 240 64 160 64
WIRE 64 80 -368 80
WIRE 272 96 160 96
WIRE 320 96 272 96
WIRE 64 112 -368 112
WIRE -448 160 -448 128
WIRE -448 160 -464 160
WIRE 112 176 112 112
WIRE 272 176 272 96
WIRE -464 192 -464 160
WIRE -416 224 -416 128
WIRE -464 240 -464 192
WIRE -464 384 -464 320
FLAG 240 64 torque
FLAG 320 96 angular_speed
FLAG -464 80 0
FLAG 112 240 0
FLAG -464 384 0
FLAG 272 256 0
FLAG -464 192 FREQ
SYMBOL Pwr\\3ph_ACMotor 112 80 R0
SYMATTR InstName U1
SYMATTR Value2 Zp=2 J=20m DY=1
SYMBOL Pwr\\3ph_gen -416 80 R0
SYMATTR InstName U2
SYMATTR Value sym=1 f=50 amp=325 phi=0 Ro=1 N={2*k+1}
SYMBOL cap 96 176 R0
SYMATTR InstName C1
SYMBOL voltage -464 224 R0
WINDOW 123 0 0 Left 0
WINDOW 39 0 0 Left 0
SYMATTR InstName V1
SYMATTR Value PWL({t1} {f/k} {t2} {f})
SYMBOL bi 272 176 R0
SYMATTR InstName B1
SYMATTR Value I=7*(tanh(100*time-255)+tanh(450-100*time))
TEXT 496 384 Left 2 !.param V=380 f=50 k=10
TEXT 504 440 Left 2 !+ t1=1/f t2=20/f
TEXT 512 488 Left 2 !.tran 7
TEXT 520 536 Left 2 !Rser=1
TEXT 624 536 Left 2 !Rpar=1e6
