Version 4
SHEET 1 936 692
WIRE 64 48 -368 48
WIRE 240 64 160 64
WIRE 64 80 -368 80
WIRE 224 96 160 96
WIRE 272 96 224 96
WIRE 320 96 272 96
WIRE 64 112 -368 112
WIRE -496 160 -528 160
WIRE -464 160 -496 160
WIRE -448 160 -448 128
WIRE -448 160 -464 160
WIRE 112 176 112 112
WIRE 272 176 272 96
WIRE -528 192 -528 160
WIRE -528 192 -560 192
WIRE -416 192 -416 128
WIRE -416 224 -416 192
WIRE -464 240 -464 160
WIRE -64 288 -80 288
WIRE 32 288 0 288
WIRE -464 304 -464 288
WIRE -464 304 -528 304
WIRE -528 320 -528 304
WIRE -80 384 -80 288
WIRE -64 384 -80 384
WIRE 32 384 32 288
WIRE 32 384 16 384
WIRE 144 384 32 384
WIRE 224 416 224 96
WIRE -560 432 -560 192
WIRE -80 432 -80 384
WIRE -80 432 -560 432
WIRE 144 496 144 384
WIRE 144 496 80 496
WIRE 224 496 144 496
WIRE -80 512 -80 432
WIRE 16 512 -80 512
WIRE 176 528 80 528
WIRE 176 672 176 608
FLAG 240 64 torque
FLAG 320 96 angular_speed
FLAG -464 80 0
FLAG 112 240 0
FLAG 176 672 0
FLAG -528 320 0
FLAG -496 160 FREQ
FLAG 272 256 0
FLAG -416 192 V
FLAG -416 304 0
SYMBOL Pwr\\3ph_ACMotor 112 80 R0
SYMATTR InstName U1
SYMATTR Value2 Zp=2 J=20m DY=1
SYMBOL Pwr\\3ph_gen -416 80 R0
SYMATTR InstName U2
SYMATTR Value sym=1 f=50 amp=325 phi=0 Ro=1 N={2*k+1}
SYMBOL cap 96 176 R0
SYMATTR InstName C1
SYMATTR Value 1n
SYMBOL res 32 368 R90
WINDOW 0 0 56 VBottom 2
WINDOW 3 32 56 VTop 2
SYMATTR InstName R1
SYMATTR Value 100k
SYMBOL Opamps\\opamp 48 448 M0
SYMATTR InstName U3
SYMBOL voltage 176 512 R0
WINDOW 123 0 0 Left 0
WINDOW 39 0 0 Left 0
SYMATTR InstName V1
SYMATTR Value PWL({t1} {f/k} {t2} {f})
SYMBOL res 208 400 R0
SYMATTR InstName R2
SYMATTR Value 47K
SYMBOL cap 0 272 R90
WINDOW 0 0 32 VBottom 2
WINDOW 3 32 32 VTop 2
SYMATTR InstName C2
SYMATTR Value 5.6µ
SYMBOL e -416 208 R0
SYMATTR InstName E1
SYMATTR Value {V/f}
SYMBOL bi 272 176 R0
SYMATTR InstName B1
SYMATTR Value I={X}*(tanh(100*time-255)+tanh(450-100*time))
TEXT 496 384 Left 2 !.param V=380 f=50 k=10
TEXT 504 440 Left 2 !+ t1=1/f t2=20/f
TEXT 512 488 Left 2 !.tran 7
TEXT 536 576 Left 2 !.lib opamp.sub
TEXT -488 616 Left 2 !.step param X 9 10 0.1
